*HEADING
ABAQUS input deck
**         Nodes
*NODE, NSET=NALL
1, 6.748999023E+01, 6.439013671E+01, 1.535986328E+01
2, 2.674899902E+02, 6.439013671E+01, 1.535986328E+01
3, 4.674899902E+02, 6.439013671E+01, 1.535986328E+01
4, 6.674899902E+02, 6.439013671E+01, 1.535986328E+01
5, 8.674899902E+02, 6.439013671E+01, 1.535986328E+01
6, 1.067489990E+03, 6.439013671E+01, 1.535986328E+01
7, 1.267489990E+03, 6.439013671E+01, 1.535986328E+01
8, 1.467489990E+03, 6.439013671E+01, 1.535986328E+01
9, 1.667489990E+03, 6.439013671E+01, 1.535986328E+01
10, 1.867489990E+03, 6.439013671E+01, 1.535986328E+01
11, 2.067489990E+03, 6.439013671E+01, 1.535986328E+01
12, 2.267489990E+03, 6.439013671E+01, 1.535986328E+01
13, 2.467489990E+03, 6.439013671E+01, 1.535986328E+01
14, 2.667489990E+03, 6.439013671E+01, 1.535986328E+01
15, 2.867489990E+03, 6.439013671E+01, 1.535986328E+01
16, 3.067489990E+03, 6.439013671E+01, 1.535986328E+01
17, 3.267489990E+03, 6.439013671E+01, 1.535986328E+01
18, 3.467489990E+03, 6.439013671E+01, 1.535986328E+01
19, 3.667489990E+03, 6.439013671E+01, 1.535986328E+01
20, 3.867489990E+03, 6.439013671E+01, 1.535986328E+01
** ... 27820 like lines cut
**         Elements
*ELEMENT, TYPE=C3D8, ELSET=Unknown-Region00-0
1, 1, 2, 22, 21, 481, 482, 502, 501
2, 2, 3, 23, 22, 482, 483, 503, 502
3, 3, 4, 24, 23, 483, 484, 504, 503
4, 4, 5, 25, 24, 484, 485, 505, 504
5, 5, 6, 26, 25, 485, 486, 506, 505
6, 6, 7, 27, 26, 486, 487, 507, 506
7, 7, 8, 28, 27, 487, 488, 508, 507
8, 8, 9, 29, 28, 488, 489, 509, 508
9, 9, 10, 30, 29, 489, 490, 510, 509
10, 10, 11, 31, 30, 490, 491, 511, 510
11, 11, 12, 32, 31, 491, 492, 512, 511
12, 12, 13, 33, 32, 492, 493, 513, 512
13, 13, 14, 34, 33, 493, 494, 514, 513
14, 14, 15, 35, 34, 494, 495, 515, 514
15, 15, 16, 36, 35, 495, 496, 516, 515
16, 16, 17, 37, 36, 496, 497, 517, 516
17, 17, 18, 38, 37, 497, 498, 518, 517
18, 18, 19, 39, 38, 498, 499, 519, 518
19, 19, 20, 40, 39, 499, 500, 520, 519
20, 21, 22, 42, 41, 501, 502, 522, 521
** ... 24889 like lines cut
**         Element sets
**         Element properties
*SOLID SECTION, ELSET=Unknown-Region00-0, MATERIAL=MID1
**         Material properties
*MATERIAL, NAME=MID1
*ELASTIC, TYPE=ISOTROPIC
1.0E+7, .3, 
